&NAM_FOREFIRE   LFOREFIRE=T, COUPLINGRES=100,
                NFFSCALARS=2, FFSVNAMES(1)='BRatio',FFSVNAMES(2)='FRP',
                FFOUTUPS(1)=5, PHYSOUT(1)=5, FLOWOUT(1)=5, CHEMOUT(1)=0/

