&NAM_CONFIO  LCDF4=T, LLFIOUT=T, LLFIREAD=F /
&NAM_LUNITn     CINIFILE = "INIFILE" CINIFILEPGD='FIRE20m' /
&NAM_DYNn       XTSTEP = 0.2, XRIMKMAX = .0, LHORELAX_UVWTH=F, LHORELAX_RV=F,
                        LVE_RELAX = T, XT4DIFU =60. , LITRADJ=T /
&NAM_ADVn       CUVW_ADV_SCHEME='CEN4TH', CMET_ADV_SCHEME = "PPM_01", CSV_ADV_SCHEME="PPM_01" /
&NAM_PARAMn     CTURB = "TKEL",CRAD="ECMW",
                        CCLOUD = "NONE",CDCONV = "NONE" /
&NAM_LBCn       CLBCX = 2*"OPEN", CLBCY = 2*"OPEN" /
&NAM_TURBn      XIMPL = 0., CTURBLEN = "DEAR", CTURBDIM = "3DIM"
                        CSUBG_AUCV='NONE', LSUBG_COND=F, LSIGMAS=T, LSIG_CONV = .F., LTURB_FLX=T /
&NAM_CONF       CCONF = "START", NVERB = 5, CSPLIT="BSPLITTING",
                        CEXP = "FI20m", CSEG = "SEG01" /
&NAM_DYN        XSEGLEN = 10, LCORIO = F, LNUMDIFU = T,
                        XALKTOP = 0.005, XALZBOT = 350 /

&NAM_PGD_SCHEMES CNATURE='ISBA' /

&NAM_FMOUT      XFMOUT(1,1) = 5., XFMOUT(1,2) = 10., XFMOUT(1,3) = 20., XFMOUT(1,4) = 30., XFMOUT(1,5) = 50
                XFMOUT(1,6) = 60., XFMOUT(1,7) = 70., XFMOUT(1,8) = 80., XFMOUT(1,9) = 90., XFMOUT(1,10) = 100/
