&nam_confio
    lcdf4 = .true.
    llfiout = .true.
    llfiread = .false.
/

&nam_lunitn
    cinifile = 'INIFILE'
    cinifilepgd = 'FIRE20m'
/

&nam_dynn
    xtstep = 0.2
    xrimkmax = 0.0
    lhorelax_uvwth = .false.
    lhorelax_rv = .false.
    lve_relax = .true.
    xt4difu = 60.0
    litradj = .true.
/

&nam_advn
    cuvw_adv_scheme = 'CEN4TH'
    cmet_adv_scheme = 'PPM_01'
    csv_adv_scheme = 'PPM_01'
/

&nam_paramn
    cturb = 'TKEL'
    crad = 'ECMW'
    ccloud = 'NONE'
    cdconv = 'NONE'
/

&nam_lbcn
    clbcx = 'OPEN', 'OPEN'
    clbcy = 'OPEN', 'OPEN'
/

&nam_turbn
    ximpl = 0.0
    cturblen = 'DEAR'
    cturbdim = '3DIM'
    csubg_aucv = 'NONE'
    lsubg_cond = .false.
    lsigmas = .true.
    lsig_conv = .false.
    lturb_flx = .true.
/

&nam_conf
    cconf = 'START'
    nverb = 5
    csplit = 'BSPLITTING'
    cexp = 'FI20m'
    cseg = 'SEG01'
/

&nam_dyn
    xseglen = 10
    lcorio = .false.
    lnumdifu = .true.
    xalktop = 0.005
    xalzbot = 350
/

&nam_pgd_schemes
    cnature = 'ISBA'
/

&nam_fmout
    xfmout(:, 1) = 5.0
    xfmout(:, 2) = 10.0
    xfmout(:, 3) = 20.0
    xfmout(:, 4) = 30.0
    xfmout(:, 5) = 50
    xfmout(:, 6) = 60.0
    xfmout(:, 7) = 70.0
    xfmout(:, 8) = 80.0
    xfmout(:, 9) = 90.0
    xfmout(:, 10) = 100
/

&nam_forefire
    lforefire = .true.
    couplingres = 100
    nffscalars = 1
    ffsvnames = 'BRatio'
    ffoutups = 5
    physout = 5
    flowout = 5
    chemout = 0
/
