&NAM_FOREFIRE   LFOREFIRE=T, COUPLINGRES=100,
                NFFSCALARS=1, FFSVNAMES(1)='BRatio',
                FFOUTUPS(1)=5, PHYSOUT(1)=5, FLOWOUT(1)=5, CHEMOUT(1)=0/

