&NAM_CONFIO  LCDF4=T, LLFIOUT=T, LLFIREAD=F /
&NAM_REAL_PGD /
&NAM_DIMn_PRE NIMAX=20, NJMAX=20 /
&NAM_VER_GRID NKMAX=45, ZDZGRD=10, ZDZTOP=10, YZGRID_TYPE='FUNCTN'/
&NAM_CONF_PRE LCARTESIAN=.TRUE., NVERB=10,
              CIDEAL='CSTN',  CZS='FLAT', LFORCING=.FALSE., LPACK=.FALSE.,
              LBOUSS=.FALSE., CEQNSYS='DUR',
              LPERTURB=.FALSE.  /
&NAM_PERT_PRE /
&NAM_CONFn LUSERV=.TRUE., NSV_USER=2 /
&NAM_GRID_PRE XLAT0=4.62 / 
&NAM_GRIDH_PRE XDELTAX=20,XDELTAY=20  /
&NAM_LUNITn CINIFILEPGD='FIRE20m' /
&NAM_PREP_ISBA XHUG_SURF=0., XHUG_ROOT=0.2, XHUG_DEEP=0.2, XTG_SURF=285.,
XTG_ROOT=285., XTG_DEEP=285. / 
&NAM_POST_PRE /
&NAM_DYNn_PRE  /
&NAM_LBCn_PRE CLBCX=2*'CYCL', CLBCY=2*'CYCL' / 
&NAM_VPROF_PRE LGEOSBAL = .FALSE., CTYPELOC='IJGRID', NILOC=2, NJLOC=2 /
&NAM_GRn_PRE CSURF='EXTE'/
&NAM_CH_MNHCn_PRE /
&NAM_BLANK /
&NAM_PGD_SCHEMES CNATURE='ISBA' /
&NAM_ISBA XUNIF_SAND = 1. /
&NAM_COVER XUNIF_COVER(1)=1. /

CSTN
2000 01 01 0.
2
285.
100000.
0. 20000.
2. 2.
0. 0.
0. 0.
0.01
