 &NAM_LUNITN
 CINIFILE        = "INIFILE                     ",
 CINIFILEPGD     = "FIRE20m                     ",
 CCPLFILE        = 24*"                            "
 /
 &NAM_CONFN
 LUSERV  = T,
 LUSERC  = F,
 LUSERR  = F,
 LUSERI  = F,
 LUSERS  = F,
 LUSERG  = F,
 LUSERH  = F,
 LUSECI  = F,
 NSV_USER        =           2
 /
 &NAM_DYNN
 XTSTEP  =  0.200000000000000     ,
 CPRESOPT        = "CRESI",
 NITR    =           3,
 LITRADJ = T,
 LRES    = F,
 XRES    =  1.000000000000000E-007,
 XRELAX  =   1.00000000000000     ,
 LHORELAX_UVWTH  = F,
 LHORELAX_RV     = F,
 LHORELAX_RC     = F,
 LHORELAX_RR     = F,
 LHORELAX_RI     = F,
 LHORELAX_RS     = F,
 LHORELAX_RG     = F,
 LHORELAX_RH     = F,
 LHORELAX_TKE    = F,
 LHORELAX_SVC2R2 = F,
 LHORELAX_SVC1R3 = F,
 LHORELAX_SVELEC = F,
 LHORELAX_SVCHEM = F,
 LHORELAX_SVCHIC = F,
 LHORELAX_SVLG   = F,
 LHORELAX_SVDST  = F,
 LHORELAX_SVSLT  = F,
 LHORELAX_SVAER  = F,
 LHORELAX_SVPP   = F,
 LHORELAX_SVCS   = F,
 LHORELAX_SV     = 200*F,
 LVE_RELAX       = T,
 LVE_RELAX_GRD   = F,
 LHORELAX_SVFF   = F,
 NRIMX   =           0,
 NRIMY   =           0,
 XRIMKMAX        =  0.000000000000000E+000,
 XT4DIFU =   60.0000000000000     ,
 XT4DIFTH        =   1800.00000000000     ,
 XT4DIFSV        =   1800.00000000000     
 /
 &NAM_ADVN
 CUVW_ADV_SCHEME = "CEN4TH",
 CMET_ADV_SCHEME = "PPM_01",
 CSV_ADV_SCHEME  = "PPM_01",
 CTEMP_SCHEME    = "RK53",
 NWENO_ORDER     =           3,
 LSPLIT_CFL      = T,
 XSPLIT_CFL      =  0.800000000000000     ,
 LCFL_WRIT       = F
 /
 &NAM_PARAMN
 CTURB   = "TKEL",
 CRAD    = "ECMW",
 CCLOUD  = "NONE",
 CDCONV  = "NONE",
 CSCONV  = "NONE",
 CELEC   = "NONE",
 CACTCCN = "NONE"
 /
 &NAM_PARAM_RADN
 XDTRAD  =   60.0000000000000     ,
 XDTRAD_CLONLY   =   60.0000000000000     ,
 LCLEAR_SKY      = F,
 NRAD_COLNBR     =        1000,
 NRAD_DIAG       =           0,
 CLW     = "RRTM",
 CAER    = "SURF",
 CAOP    = "CLIM",
 CEFRADL = "MART",
 CEFRADI = "LIOU",
 COPWLW  = "SMSH",
 COPILW  = "EBCU",
 COPWSW  = "FOUQ",
 COPISW  = "EBCU",
 XFUDG   =   1.00000000000000     ,
 LAERO_FT        = F,
 LFIX_DAT        = F
 /
 &NAM_LBCN
 CLBCX   = 2*"OPEN",
 CLBCY   = 2*"OPEN",
 NLBLX   = 2*1,
 NLBLY   = 2*1,
 XCPHASE =   20.0000000000000     ,
 XCPHASE_PBL     =  0.000000000000000E+000,
 XCARPKMAX       =   999.000000000000     ,
 XPOND   =   1.00000000000000     
 /
 &NAM_NUDGINGN
 LNUDGING        = F,
 XTNUDGING       =   21600.0000000000     
 /
 &NAM_TURBN
 XIMPL   =  0.000000000000000E+000,
 CTURBLEN        = "DEAR",
 CTURBDIM        = "3DIM",
 LTURB_FLX       = T,
 LTURB_DIAG      = F,
 LSUBG_COND      = F,
 LSIGMAS = T,
 LSIG_CONV       = F,
 LRMC01  = F,
 CTOM    = "NONE",
 CSUBG_AUCV      = "NONE",
 XKEMIN  =  1.000000000000000E-002,
 VSIGQSAT        =  0.000000000000000E+000
 /
 &NAM_CONF
 CCONF   = "START",
 LFLAT   = T,
 NMODEL  =           1,
 CEQNSYS = "DUR",
 NVERB   =           5,
 CEXP    = "FI20m",
 CSEG    = "SEG01",
 LFORCING        = F,
 NHALO   =           3,
 CSPLIT  = "BSPLITTING",
 LLG     = F,
 LINIT_LG        = F,
 CINIT_LG        = "FMOUT",
 LNOMIXLG        = F,
 LCHECK  = F,
 JPHEXT  =           1
 /
 &NAM_DYN
 XSEGLEN =   10.2000000000000     ,
 XASSELIN        =  0.200000000000000     ,
 XASSELIN_SV     =  2.000000000000000E-002,
 LCORIO  = F,
 LNUMDIFU        = T,
 LNUMDIFTH       = F,
 LNUMDIFSV       = F,
 XALKTOP =  5.000000000000000E-003,
 XALZBOT =   350.000000000000     ,
 LZDIFFU = F,
 XALKGRD =  1.000000000000000E-002,
 XALZBAS =  1.000000000000000E-002
 /
 &NAM_NESTING
 NDAD    = 2*1,           2,           3,           4,           5,           6,           7,
 NDTRATIO        = 8*1,
 XWAY    =  0.000000000000000E+000, 7*2.00000000000000        
 /
 &NAM_BLANK
 XDUMMY1 =  0.000000000000000E+000,
 XDUMMY2 =  0.000000000000000E+000,
 XDUMMY3 =  0.000000000000000E+000,
 XDUMMY4 =  0.000000000000000E+000,
 XDUMMY5 =  0.000000000000000E+000,
 XDUMMY6 =  0.000000000000000E+000,
 XDUMMY7 =  0.000000000000000E+000,
 XDUMMY8 =  0.000000000000000E+000,
 NDUMMY1 =           0,
 NDUMMY2 =           0,
 NDUMMY3 =           0,
 NDUMMY4 =           0,
 NDUMMY5 =           0,
 NDUMMY6 =           0,
 NDUMMY7 =           0,
 NDUMMY8 =           0,
 LDUMMY1 = T,
 LDUMMY2 = T,
 LDUMMY3 = T,
 LDUMMY4 = T,
 LDUMMY5 = T,
 LDUMMY6 = T,
 LDUMMY7 = T,
 LDUMMY8 = T,
 CDUMMY1 = "                                                                                ",
 CDUMMY2 = "                                                                                ",
 CDUMMY3 = "                                                                                ",
 CDUMMY4 = "                                                                                ",
 CDUMMY5 = "                                                                                ",
 CDUMMY6 = "                                                                                ",
 CDUMMY7 = "                                                                                ",
 CDUMMY8 = "                                                                                ",
 XDUMMY  = 20*0.000000000000000E+000  ,
 NDUMMY  = 20*0,
 LDUMMY  = 20*T,
 CDUMMY  = 20*"                                                                                "
 /
 &NAM_TURB
 XPHI_LIM        =   3.00000000000000     ,
 XSBL_O_BL       =  5.000000000000000E-002,
 XFTOP_O_FSURF   =  5.000000000000000E-002
 /
