**************************************************
*                 MODEL 1 LISTING                *
**************************************************
 -- namelist NAM_CONFZ not found: default values used if required
 -- namelist NAM_CONFIO read
 -- namelist NAM_SERIESN not found: default values used if required
 -- namelist NAM_SERIES not found: default values used if required
 -- namelist NAM_TURB_CLOUD not found: default values used if required
 -- namelist NAM_TURB not found: default values used if required
 -- namelist NAM_CH_ORILAM not found: default values used if required
 -- namelist NAM_DUST not found: default values used if required
 -- namelist NAM_SALT not found: default values used if required
 -- namelist NAM_PASPOL not found: default values used if required
 -- namelist NAM_FOREFIRE not found: default values used if required
 -- namelist NAM_CONDSAMP not found: default values used if required
 -- namelist NAM_2D_FRC not found: default values used if required

DESCRIPTOR OF INITIAL FILE FOR MODEL  1
------------------------------------ 
********** LOGICAL UNITSn **********
 &NAM_LUNITN
 CINIFILE        = INIFILE                     ,
 CINIFILEPGD     = FIRE20m                     ,
 CCPLFILE        =                                                                                                                                                                                                                                                                                                                                                                                                                                                                                                                                                                                                                                                                                                 
 /
********** CONFIGURATIONn **********
 &NAM_CONFN
 LUSERV  = T,
 LUSERC  = F,
 LUSERR  = F,
 LUSERI  = F,
 LUSERS  = F,
 LUSERG  = F,
 LUSERH  = F,
 LUSECI  = F,
 NSV_USER        =           2
 /
********** DYNAMICn ****************
 &NAM_DYNN
 XTSTEP  =   60.0000000000000     ,
 CPRESOPT        = CRESI,
 NITR    =           3,
 LITRADJ = T,
 LRES    = F,
 XRES    =  1.000000000000000E-007,
 XRELAX  =   1.00000000000000     ,
 LHORELAX_UVWTH  = F,
 LHORELAX_RV     = F,
 LHORELAX_RC     = F,
 LHORELAX_RR     = F,
 LHORELAX_RI     = F,
 LHORELAX_RS     = F,
 LHORELAX_RG     = F,
 LHORELAX_RH     = F,
 LHORELAX_TKE    = F,
 LHORELAX_SVC2R2 = F,
 LHORELAX_SVC1R3 = F,
 LHORELAX_SVELEC = F,
 LHORELAX_SVCHEM = F,
 LHORELAX_SVCHIC = F,
 LHORELAX_SVLG   = F,
 LHORELAX_SVDST  = F,
 LHORELAX_SVSLT  = F,
 LHORELAX_SVAER  = F,
 LHORELAX_SVPP   = F,
 LHORELAX_SVCS   = F,
 LHORELAX_SV     = 200*F,
 LVE_RELAX       = F,
 LVE_RELAX_GRD   = F,
 LHORELAX_SVFF   = F,
 NRIMX   =           6,
 NRIMY   =           6,
 XRIMKMAX        =  1.666666666666667E-004,
 XT4DIFU =   1800.00000000000     ,
 XT4DIFTH        =   1800.00000000000     ,
 XT4DIFSV        =   1800.00000000000     
 /
********** ADVECTIONn **************
 &NAM_ADVN
 CUVW_ADV_SCHEME = WENO_K,
 CMET_ADV_SCHEME = PPM_01,
 CSV_ADV_SCHEME  = PPM_01,
 CTEMP_SCHEME    = RK53,
 NWENO_ORDER     =           3,
 LSPLIT_CFL      = T,
 XSPLIT_CFL      =  0.800000000000000     ,
 LCFL_WRIT       = F
 /
********** PARAMETERIZATIONSn ******
 &NAM_PARAMN
 CTURB   = NONE,
 CRAD    = NONE,
 CCLOUD  = NONE,
 CDCONV  = NONE,
 CSCONV  = NONE,
 CELEC   = NONE,
 CACTCCN = NONE
 /
********** RADIATIONSn *************
 &NAM_PARAM_RADN
 XDTRAD  =   60.0000000000000     ,
 XDTRAD_CLONLY   =   60.0000000000000     ,
 LCLEAR_SKY      = F,
 NRAD_COLNBR     =        1000,
 NRAD_DIAG       =           0,
 CLW     = RRTM,
 CAER    = SURF,
 CAOP    = CLIM,
 CEFRADL = MART,
 CEFRADI = LIOU,
 COPWLW  = SMSH,
 COPILW  = EBCU,
 COPWSW  = FOUQ,
 COPISW  = EBCU,
 XFUDG   =   1.00000000000000     ,
 LAERO_FT        = F,
 LFIX_DAT        = F
 /
********** DEEP CONVECTIONn ********
 &NAM_PARAM_KAFRN
 XDTCONV =   300.000000000000     ,
 LREFRESH_ALL    = T,
 LCHTRANS        = F,
 LDOWN   = T,
 NICE    =           1,
 LSETTADJ        = F,
 XTADJD  =   3600.00000000000     ,
 XTADJS  =   10800.0000000000     ,
 LDIAGCONV       = F,
 NENSM   =           0
 /
*** MASS FLUX SHALLOW CONVECTION ***
 &NAM_PARAM_MFSHALLN
 XIMPL_MF        =   1.00000000000000     ,
 CMF_UPDRAFT     = EDKF,
 CMF_CLOUD       = DIRE,
 LMIXUV  = T,
 LMF_FLX = F,
 XALP_PERT       =  0.300000000000000     ,
 XABUO   =   1.00000000000000     ,
 XBENTR  =   1.00000000000000     ,
 XBDETR  =  0.000000000000000E+000,
 XCMF    =  6.500000000000000E-002,
 XENTR_MF        =  3.500000000000000E-002,
 XCRAD_MF        =   50.0000000000000     ,
 XENTR_DRY       =  0.550000000000000     ,
 XDETR_DRY       =   10.0000000000000     ,
 XDETR_LUP       =   1.00000000000000     ,
 XKCF_MF =   2.75000000000000     ,
 XKRC_MF =   1.00000000000000     ,
 XTAUSIGMF       =   600.000000000000     ,
 XPRES_UV        =  0.500000000000000     ,
 XALPHA_MF       =   2.00000000000000     ,
 XSIGMA_MF       =   20.0000000000000     ,
 XFRAC_UP_MAX    =  0.330000000000000     ,
 XA1     =  0.666666666666667     ,
 XB      =  2.000000000000000E-003,
 XC      =  1.200000000000000E-002,
 XBETA1  =  0.900000000000000     
 /
********** LBCn ********************
 &NAM_LBCN
 CLBCX   = CYCLCYCL,
 CLBCY   = CYCLCYCL,
 NLBLX   = 2*1,
 NLBLY   = 2*1,
 XCPHASE =   20.0000000000000     ,
 XCPHASE_PBL     =  0.000000000000000E+000,
 XCARPKMAX       =   999.000000000000     ,
 XPOND   =   1.00000000000000     
 /
********** TURBn *******************
 &NAM_TURBN
 XIMPL   =   1.00000000000000     ,
 CTURBLEN        = BL89,
 CTURBDIM        = 1DIM,
 LTURB_FLX       = F,
 LTURB_DIAG      = F,
 LSUBG_COND      = F,
 LSIGMAS = T,
 LSIG_CONV       = F,
 LRMC01  = F,
 CTOM    = NONE,
 CSUBG_AUCV      = NONE,
 XKEMIN  =  1.000000000000000E-002,
 VSIGQSAT        =  0.000000000000000E+000
 /
********** NUDGINGn ****************
 &NAM_NUDGINGN
 LNUDGING        = F,
 XTNUDGING       =   21600.0000000000     
 /
********** CHEMICAL MONITORn *******
 &NAM_CH_MNHCN
 LUSECHEM        = F,
 LUSECHAQ        = F,
 LUSECHIC        = F,
 LCH_INIT_FIELD  = F,
 LCH_SURFACE_FLUX        = F,
 LCH_CONV_SCAV   = F,
 LCH_CONV_LINOX  = F,
 LCH_PH  = F,
 LCH_RET_ICE     = F,
 XCH_PHINIT      =   5.20000000000000     ,
 XRTMIN_AQ       =  5.000000000000000E-008,
 CCHEM_INPUT_FILE        = EXSEG1.nam                                                                      ,
 CCH_TDISCRETIZATION     = SPLIT     ,
 NCH_SUBSTEPS    =           1,
 LCH_TUV_ONLINE  = F,
 CCH_TUV_LOOKUP  = PHOTO.TUV39                                                                     ,
 CCH_TUV_CLOUDS  = NONE,
 XCH_TUV_ALBNEW  =  -1.00000000000000     ,
 XCH_TUV_DOBNEW  =  -1.00000000000000     ,
 XCH_TUV_TUPDATE =   600.000000000000     ,
 CCH_VEC_METHOD  = MAX,
 NCH_VEC_LENGTH  =        1000,
 XCH_TS1D_TSTEP  =   600.000000000000     ,
 CCH_TS1D_COMMENT        = no comment                                                                      ,
 CCH_TS1D_FILENAME       = IO1D                                                                            
 /
************ CHEMICAL SOLVER ******************
 &NAM_CH_SOLVERN
 CSOLVER = EXQSSA                          ,
 NSSA    =           0,
 NSSAINDEX       = 1000*0,
 XRTOL   =  1.000000000000000E-003,
 XATOL   =  0.100000000000000     ,
 NRELAB  =           2,
 NPED    =           1,
 NMAXORD =           5,
 LPETZLD = T,
 CMETHOD = N,
 CNORM   = A,
 NTRACE  =           0,
 XALPHA  =  0.500000000000000     ,
 XSLOW   =   100.000000000000     ,
 XFAST   =  0.100000000000000     ,
 NQSSAITER       =           1,
 XDTMIN  =  0.100000000000000     ,
 XDTMAX  =   30.0000000000000     ,
 XDTFIRST        =   10.0000000000000     
 /

PART OF INITIAL FILE COMMON TO ALL THE MODELS
---------------------------------------------
************ CONFIGURATION ********************
 &NAM_CONF
 CCONF   = START,
 LFLAT   = T,
 NMODEL  =           1,
 CEQNSYS = DUR,
 NVERB   =          10,
 CEXP    = EXP01,
 CSEG    = SEG01,
 LFORCING        = F,
 NHALO   =           3,
 CSPLIT  = BSPLITTING,
 LLG     = F,
 LINIT_LG        = F,
 CINIT_LG        = FMOUT,
 LNOMIXLG        = F,
 LCHECK  = F,
 JPHEXT  =           1
 /
************ DYNAMIC **************************
 &NAM_DYN
 XSEGLEN =   43200.0000000000     ,
 XASSELIN        =  0.200000000000000     ,
 XASSELIN_SV     =  2.000000000000000E-002,
 LCORIO  = T,
 LNUMDIFU        = F,
 LNUMDIFTH       = F,
 LNUMDIFSV       = F,
 XALKTOP =  1.000000000000000E-002,
 XALZBOT =   4000.00000000000     ,
 LZDIFFU = F,
 XALKGRD =  1.000000000000000E-002,
 XALZBAS =  1.000000000000000E-002
 /
************ BUDGET ***************************
 &NAM_BUDGET
 CBUTYPE = NONE,
 NBUMOD  =           1,
 XBULEN  =   43200.0000000000     ,
 NBUKL   =           1,
 NBUKH   =           0,
 LBU_KCP = T,
 XBUWRI  =   43200.0000000000     ,
 NBUIL   =           1,
 NBUIH   =           0,
 NBUJL   =           1,
 NBUJH   =           0,
 LBU_ICP = T,
 LBU_JCP = T,
 NBUMASK =           1
 /
************ U BUDGET *************************
 &NAM_BU_RU
 LBU_RU  = F,
 NASSEU  =           0,
 NNESTU  =           0,
 NADVU   =           0,
 NFRCU   =           0,
 NNUDU   =           0,
 NCURVU  =           0,
 NCORU   =           0,
 NDIFU   =           0,
 NRELU   =           0,
 NDRAGU  =           0,
 NHTURBU =           0,
 NVTURBU =           0,
 NMAFLU  =           0,
 NPRESU  =           0
 /
************ V BUDGET *************************
 &NAM_BU_RV
 LBU_RV  = F,
 NASSEV  =           0,
 NNESTV  =           0,
 NADVV   =           0,
 NFRCV   =           0,
 NNUDV   =           0,
 NCURVV  =           0,
 NCORV   =           0,
 NDIFV   =           0,
 NRELV   =           0,
 NDRAGV  =           0,
 NHTURBV =           0,
 NVTURBV =           0,
 NMAFLV  =           0,
 NPRESV  =           0
 /
************ W BUDGET *************************
 &NAM_BU_RW
 LBU_RW  = F,
 NASSEW  =           0,
 NNESTW  =           0,
 NADVW   =           0,
 NFRCW   =           0,
 NNUDW   =           0,
 NCURVW  =           0,
 NCORW   =           0,
 NGRAVW  =           0,
 NDIFW   =           0,
 NRELW   =           0,
 NHTURBW =           0,
 NVTURBW =           0,
 NPRESW  =           0
 /
************ TH BUDGET ************************
 &NAM_BU_RTH
 LBU_RTH = F,
 NASSETH =           0,
 NNESTTH =           0,
 NADVTH  =           0,
 NFRCTH  =           0,
 NNUDTH  =           0,
 NPREFTH =           0,
 NDIFTH  =           0,
 NRELTH  =           0,
 NRADTH  =           0,
 NDCONVTH        =           0,
 NHTURBTH        =           0,
 NVTURBTH        =           0,
 NDISSHTH        =           0,
 NNEGATH =           0,
 NREVATH =           0,
 NCONDTH =           0,
 NHENUTH =           0,
 NHONTH  =           0,
 NSFRTH  =           0,
 NDEPSTH =           0,
 NDEPGTH =           0,
 NRIMTH  =           0,
 NACCTH  =           0,
 NCFRZTH =           0,
 NWETGTH =           0,
 NDRYGTH =           0,
 NGMLTTH =           0,
 NIMLTTH =           0,
 NBERFITH        =           0,
 NCDEPITH        =           0,
 NWETHTH =           0,
 NHMLTTH =           0,
 NMAFLTH =           0
 /
************ TKE BUDGET ***********************
 &NAM_BU_RTKE
 LBU_RTKE        = F,
 NASSETKE        =           0,
 NADVTKE =           0,
 NFRCTKE =           0,
 NDIFTKE =           0,
 NRELTKE =           0,
 NDRAGTKE        =           0,
 NDPTKE  =           0,
 NTPTKE  =           0,
 NDISSTKE        =           0,
 NTRTKE  =           0
 /
************ RV BUDGET ************************
 &NAM_BU_RRV
 LBU_RRV = F,
 NASSERV =           0,
 NNESTRV =           0,
 NADVRV  =           0,
 NFRCRV  =           0,
 NNUDRV  =           0,
 NDIFRV  =           0,
 NRELRV  =           0,
 NDCONVRV        =           0,
 NHTURBRV        =           0,
 NVTURBRV        =           0,
 NNEGARV =           0,
 NREVARV =           0,
 NCONDRV =           0,
 NHENURV =           0,
 NDEPSRV =           0,
 NDEPGRV =           0,
 NCDEPIRV        =           0,
 NMAFLRV =           0
 /
************ RC BUDGET ************************
 &NAM_BU_RRC
 LBU_RRC = F,
 NASSERC =           0,
 NNESTRC =           0,
 NADVRC  =           0,
 NFRCRC  =           0,
 NDIFRC  =           0,
 NRELRC  =           0,
 NDCONVRC        =           0,
 NHTURBRC        =           0,
 NVTURBRC        =           0,
 NNEGARC =           0,
 NACCRRC =           0,
 NAUTORC =           0,
 NCONDRC =           0,
 NHONRC  =           0,
 NRIMRC  =           0,
 NWETGRC =           0,
 NDRYGRC =           0,
 NIMLTRC =           0,
 NBERFIRC        =           0,
 NCDEPIRC        =           0,
 NHENURC =           0,
 NSEDIRC =           0,
 NWETHRC =           0
 /
************ RR BUDGET ************************
 &NAM_BU_RRR
 LBU_RRR = F,
 NASSERR =           0,
 NNESTRR =           0,
 NADVRR  =           0,
 NFRCRR  =           0,
 NDIFRR  =           0,
 NRELRR  =           0,
 NNEGARR =           0,
 NACCRRR =           0,
 NAUTORR =           0,
 NREVARR =           0,
 NSEDIRR =           0,
 NSFRRR  =           0,
 NACCRR  =           0,
 NCFRZRR =           0,
 NWETGRR =           0,
 NDRYGRR =           0,
 NGMLTRR =           0,
 NWETHRR =           0,
 NHMLTRR =           0
 /
************ RI BUDGET ************************
 &NAM_BU_RRI
 LBU_RRI = F,
 NASSERI =           0,
 NNESTRI =           0,
 NADVRI  =           0,
 NFRCRI  =           0,
 NDIFRI  =           0,
 NRELRI  =           0,
 NDCONVRI        =           0,
 NHTURBRI        =           0,
 NVTURBRI        =           0,
 NNEGARI =           0,
 NSEDIRI =           0,
 NHENURI =           0,
 NHONRI  =           0,
 NAGGSRI =           0,
 NAUTSRI =           0,
 NCFRZRI =           0,
 NWETGRI =           0,
 NDRYGRI =           0,
 NIMLTRI =           0,
 NBERFIRI        =           0,
 NCDEPIRI        =           0,
 NWETHRI =           0
 /
************ RS BUDGET ************************
 &NAM_BU_RRS
 LBU_RRS = F,
 NASSERS =           0,
 NNESTRS =           0,
 NADVRS  =           0,
 NFRCRS  =           0,
 NDIFRS  =           0,
 NRELRS  =           0,
 NNEGARS =           0,
 NSEDIRS =           0,
 NDEPSRS =           0,
 NAGGSRS =           0,
 NAUTSRS =           0,
 NRIMRS  =           0,
 NACCRS  =           0,
 NCMELRS =           0,
 NWETGRS =           0,
 NDRYGRS =           0,
 NWETHRS =           0
 /
************ RG BUDGET ************************
 &NAM_BU_RRG
 LBU_RRG = F,
 NASSERG =           0,
 NNESTRG =           0,
 NADVRG  =           0,
 NFRCRG  =           0,
 NDIFRG  =           0,
 NRELRG  =           0,
 NNEGARG =           0,
 NSEDIRG =           0,
 NSFRRG  =           0,
 NDEPGRG =           0,
 NRIMRG  =           0,
 NACCRG  =           0,
 NCMELRG =           0,
 NCFRZRG =           0,
 NWETGRG =           0,
 NDRYGRG =           0,
 NGMLTRG =           0,
 NWETHRG =           0,
 NCOHGRG =           0
 /
************ RH BUDGET ************************
 &NAM_BU_RRH
 LBU_RRH = F,
 NASSERH =           0,
 NNESTRH =           0,
 NADVRH  =           0,
 NFRCRH  =           0,
 NDIFRH  =           0,
 NRELRH  =           0,
 NNEGARH =           0,
 NSEDIRH =           0,
 NWETGRH =           0,
 NWETHRH =           0,
 NCOHGRH =           0,
 NHMLTRH =           0
 /
************ SVx BUDGET ***********************
 &NAM_BU_RSV
 LBU_RSV = F,
 NASSESV =           0,
 NNESTSV =           0,
 NADVSV  =           0,
 NFRCSV  =           0,
 NDIFSV  =           0,
 NRELSV  =           0,
 NDCONVSV        =           0,
 NVTURBSV        =           0,
 NHTURBSV        =           0,
 NCHEMSV =           0,
 NMAFLSV =           0,
 NNEGASV =           0,
 NAUTOQC =           0,
 NACCRQC =           0,
 NRIMQC  =           0,
 NWETGQC =           0,
 NDRYGQC =           0,
 NIMLTQC =           0,
 NBERFIQC        =           0,
 NDEPIQC =           0,
 NINDQC  =           0,
 NSEDIQC =           0,
 NNEUTQC =           0,
 NAUTOQR =           0,
 NACCRQR =           0,
 NREVAQR =           0,
 NACCQR  =           0,
 NCFRZQR =           0,
 NWETGQR =           0,
 NDRYGQR =           0,
 NGMLTQR =           0,
 NSEDIQR =           0,
 NNEUTQR =           0,
 NAGGSQI =           0,
 NAUTSQI =           0,
 NCFRZQI =           0,
 NWETGQI =           0,
 NDRYGQI =           0,
 NIMLTQI =           0,
 NBERFIQI        =           0,
 NDEPIQI =           0,
 NNIISQI =           0,
 NSEDIQI =           0,
 NNEUTQI =           0,
 NDEPSQS =           0,
 NAGGSQS =           0,
 NAUTSQS =           0,
 NRIMQS  =           0,
 NACCQS  =           0,
 NCMELQS =           0,
 NWETGQS =           0,
 NDRYGQS =           0,
 NNIISQS =           0,
 NSEDIQS =           0,
 NNEUTQS =           0,
 NDEPGQG =           0,
 NRIMQG  =           0,
 NACCQG  =           0,
 NCMELQG =           0,
 NCFRZQG =           0,
 NWETGQG =           0,
 NDRYGQG =           0,
 NGMLTQG =           0,
 NINDQG  =           0,
 NSEDIQG =           0,
 NNEUTQG =           0
 /
************ LES ******************************
 &NAM_LES
 LLES_MEAN       = F,
 LLES_RESOLVED   = F,
 LLES_SUBGRID    = F,
 LLES_UPDRAFT    = F,
 LLES_DOWNDRAFT  = F,
 LLES_SPECTRA    = F,
 NLES_LEVELS     = 900*999,
 XLES_ALTITUDES  = 900*999.000000000000        ,
 NSPECTRA_LEVELS = 900*999,
 XSPECTRA_ALTITUDES      = 900*999.000000000000        ,
 NLES_TEMP_SERIE_I       = 10*999,
 NLES_TEMP_SERIE_J       = 10*999,
 NLES_TEMP_SERIE_Z       = 10*999,
 CLES_NORM_TYPE  = NONE,
 CBL_HEIGHT_DEF  = KE ,
 XLES_TEMP_SAMPLING      =   999.000000000000     ,
 XLES_TEMP_MEAN_START    =   999.000000000000     ,
 XLES_TEMP_MEAN_END      =   999.000000000000     ,
 XLES_TEMP_MEAN_STEP     =   3600.00000000000     ,
 LLES_CART_MASK  = F,
 NLES_IINF       =         999,
 NLES_ISUP       =         999,
 NLES_JINF       =         999,
 NLES_JSUP       =         999,
 LLES_NEB_MASK   = F,
 LLES_CORE_MASK  = F,
 LLES_MY_MASK    = F,
 LLES_CS_MASK    = F,
 NLES_MASKS_USER =         999
 /
************ PDF ******************************
 &NAM_PDF
 LLES_PDF        = F,
 NPDF    =           1,
 XTH_PDF_MIN     =   270.000000000000     ,
 XTH_PDF_MAX     =   350.000000000000     ,
 XW_PDF_MIN      =  -10.0000000000000     ,
 XW_PDF_MAX      =   10.0000000000000     ,
 XTHV_PDF_MIN    =   270.000000000000     ,
 XTHV_PDF_MAX    =   350.000000000000     ,
 XRV_PDF_MIN     =  0.000000000000000E+000,
 XRV_PDF_MAX     =   20.0000000000000     ,
 XRC_PDF_MIN     =  0.000000000000000E+000,
 XRC_PDF_MAX     =   1.00000000000000     ,
 XRR_PDF_MIN     =  0.000000000000000E+000,
 XRR_PDF_MAX     =   1.00000000000000     ,
 XRI_PDF_MIN     =  0.000000000000000E+000,
 XRI_PDF_MAX     =   1.00000000000000     ,
 XRS_PDF_MIN     =  0.000000000000000E+000,
 XRS_PDF_MAX     =   1.00000000000000     ,
 XRG_PDF_MIN     =  0.000000000000000E+000,
 XRG_PDF_MAX     =   1.00000000000000     ,
 XRT_PDF_MIN     =  0.000000000000000E+000,
 XRT_PDF_MAX     =   20.0000000000000     ,
 XTHL_PDF_MIN    =   270.000000000000     ,
 XTHL_PDF_MAX    =   350.000000000000     
 /
************ BLANK ****************************
 &NAM_BLANK
 XDUMMY1 =  0.000000000000000E+000,
 XDUMMY2 =  0.000000000000000E+000,
 XDUMMY3 =  0.000000000000000E+000,
 XDUMMY4 =  0.000000000000000E+000,
 XDUMMY5 =  0.000000000000000E+000,
 XDUMMY6 =  0.000000000000000E+000,
 XDUMMY7 =  0.000000000000000E+000,
 XDUMMY8 =  0.000000000000000E+000,
 NDUMMY1 =           0,
 NDUMMY2 =           0,
 NDUMMY3 =           0,
 NDUMMY4 =           0,
 NDUMMY5 =           0,
 NDUMMY6 =           0,
 NDUMMY7 =           0,
 NDUMMY8 =           0,
 LDUMMY1 = T,
 LDUMMY2 = T,
 LDUMMY3 = T,
 LDUMMY4 = T,
 LDUMMY5 = T,
 LDUMMY6 = T,
 LDUMMY7 = T,
 LDUMMY8 = T,
 CDUMMY1 =                                                                                 ,
 CDUMMY2 =                                                                                 ,
 CDUMMY3 =                                                                                 ,
 CDUMMY4 =                                                                                 ,
 CDUMMY5 =                                                                                 ,
 CDUMMY6 =                                                                                 ,
 CDUMMY7 =                                                                                 ,
 CDUMMY8 =                                                                                 ,
 XDUMMY  = 20*0.000000000000000E+000  ,
 NDUMMY  = 20*0,
 LDUMMY  = 20*T,
 CDUMMY  =                                                                                                                                                                                                                                                                                                                                                                                                                                                                                                                                                                                                                                                                                                                                                                                                                                                                                                                                                                                                                                                                                                                                                                                                                                                                                                                                                                                                                                                                                                                                                                                                                                                                 
 /
************ FORCING **************************
 &NAM_FRC
 LGEOST_UV_FRC   = F,
 LGEOST_TH_FRC   = F,
 LTEND_THRV_FRC  = F,
 LVERT_MOTION_FRC        = F,
 LRELAX_THRV_FRC = F,
 LRELAX_UV_FRC   = F,
 XRELAX_TIME_FRC =   10800.0000000000     ,
 XRELAX_HEIGHT_FRC       =  0.000000000000000E+000,
 CRELAX_HEIGHT_TYPE      = FIXE,
 LTRANS  = F,
 XUTRANS =  0.000000000000000E+000,
 XVTRANS =  0.000000000000000E+000,
 LPGROUND_FRC    = F
 /
************ ICE SCHEME ***********************
 &NAM_PARAM_ICE
 LWARM   = T,
 LSEDIC  = F,
 LCONVHG = F,
 CPRISTINE_ICE   = PLAT,
 CSEDIM  = SPLI
 /
************ ORILAM SCHEME ********************
 &NAM_CH_ORILAM
 LORILAM = F,
 XN0IMIN =   1000000.00000000     ,
 XN0JMIN =   10000.0000000000     ,
 LSEDIMAERO      = F,
 LAERINIT        = F,
 LHETEROSO4      = F,
 CNUCLEATION     = NONE                                                                            ,
 XINISIGI        =   1.75000000000000     ,
 XINISIGJ        =   1.76000000000000     ,
 XINIRADIUSI     =  3.900000000000000E-002,
 XINIRADIUSJ     =  0.321000000000000     ,
 LVARSIGI        = F,
 LVARSIGJ        = F,
 CMINERAL        = NONE ,
 CORGANIC        = NONE ,
 XSIGIMIN        =   1.10000000000000     ,
 XSIGIMAX        =   3.60000000000000     ,
 XSIGJMIN        =   1.10000000000000     ,
 XSIGJMAX        =   3.60000000000000     ,
 XCOEFRADIMAX    =   30.0000000000000     ,
 XCOEFRADIMIN    =   3.00000000000000     ,
 XCOEFRADJMAX    =   30.0000000000000     ,
 XCOEFRADJMIN    =   10.0000000000000     ,
 CRGUNIT = NUMB,
 LRGFIX  = F,
 LDEPOS_AER      = 8*F
 /
************ SALT SCHEME **********************
 &NAM_SALT
 LSALT   = F,
 CRGUNITS        = MASS,
 LVARSIG_SLT     = F,
 LSEDIMSALT      = F,
 XN0MIN_SLT      =   10.0000000000000     ,   1.00000000000000     ,  1.000000000000000E-004,
 XINIRADIUS_SLT  =  0.140000000000000     ,   1.12500000000000     ,   7.66000000000000     ,
 XINISIG_SLT     =   1.90000000000000     , 2*2.00000000000000        ,
 XSIGMIN_SLT     =   1.20000000000000     ,
 XSIGMAX_SLT     =   3.60000000000000     ,
 XCOEFRADMAX_SLT =   10.0000000000000     ,
 XCOEFRADMIN_SLT =  0.100000000000000     ,
 NMODE_SLT       =           3,
 LRGFIX_SLT      = F,
 LDEPOS_SLT      = 8*F
 /
************ DUST SCHEME **********************
 &NAM_DUST
 LDUST   = F,
 CRGUNITD        = NUMB,
 LVARSIG = F,
 LSEDIMDUST      = F,
 XN0MIN  =   1000.00000000000     ,   10.0000000000000     ,  1.000000000000000E-002,
 XINIRADIUS      =  3.900000000000000E-002,  0.320500000000000     ,   2.50000000000000     ,
 XINISIG =   1.75000000000000     ,   1.76000000000000     ,   1.70000000000000     ,
 XSIGMIN =   1.20000000000000     ,
 XSIGMAX =   3.60000000000000     ,
 XCOEFRADMAX     =   10.0000000000000     ,
 XCOEFRADMIN     =  0.100000000000000     ,
 NMODE_DST       =           3,
 LRGFIX_DST      = F,
 LDEPOS_DST      = 8*F
 /
************ PASSIVE POLLUTANT  ***************
 &NAM_PASPOL
 LPASPOL = F,
 NRELEASE        =           0,
 CPPINIT = 1PT1PT1PT1PT1PT1PT1PT1PT1PT1PT1PT1PT1PT1PT1PT1PT1PT1PT1PT1PT1PT1PT1PT1PT1PT1PT1PT1PT1PT1PT1PT1PT1PT1PT1PT1PT1PT1PT1PT1PT1PT1PT1PT1PT1PT1PT1PT1PT1PT1PT1PT1PT1PT1PT1PT1PT1PT1PT1PT1PT1PT1PT1PT1PT1PT1PT1PT1PT1PT1PT1PT1PT1PT1PT1PT1PT1PT1PT1PT1PT1PT1PT1PT1PT1PT1PT1PT1PT1PT1PT1PT1PT1PT1PT1PT1PT1PT1PT1PT1PT,
 XPPLAT  = 100*0.000000000000000E+000  ,
 XPPLON  = 100*0.000000000000000E+000  ,
 XPPMASS = 100*0.000000000000000E+000  ,
 XPPBOT  = 100*0.000000000000000E+000  ,
 XPPTOP  = 100*0.000000000000000E+000  ,
 CPPT1   = 20010921090000200109210900002001092109000020010921090000200109210900002001092109000020010921090000200109210900002001092109000020010921090000200109210900002001092109000020010921090000200109210900002001092109000020010921090000200109210900002001092109000020010921090000200109210900002001092109000020010921090000200109210900002001092109000020010921090000200109210900002001092109000020010921090000200109210900002001092109000020010921090000200109210900002001092109000020010921090000200109210900002001092109000020010921090000200109210900002001092109000020010921090000200109210900002001092109000020010921090000200109210900002001092109000020010921090000200109210900002001092109000020010921090000200109210900002001092109000020010921090000200109210900002001092109000020010921090000200109210900002001092109000020010921090000200109210900002001092109000020010921090000200109210900002001092109000020010921090000200109210900002001092109000020010921090000200109210900002001092109000020010921090000200109210900002001092109000020010921090000200109210900002001092109000020010921090000200109210900002001092109000020010921090000200109210900002001092109000020010921090000200109210900002001092109000020010921090000200109210900002001092109000020010921090000200109210900002001092109000020010921090000200109210900002001092109000020010921090000200109210900002001092109000020010921090000200109210900002001092109000020010921090000,
 CPPT2   = 20010921090000200109210900002001092109000020010921090000200109210900002001092109000020010921090000200109210900002001092109000020010921090000200109210900002001092109000020010921090000200109210900002001092109000020010921090000200109210900002001092109000020010921090000200109210900002001092109000020010921090000200109210900002001092109000020010921090000200109210900002001092109000020010921090000200109210900002001092109000020010921090000200109210900002001092109000020010921090000200109210900002001092109000020010921090000200109210900002001092109000020010921090000200109210900002001092109000020010921090000200109210900002001092109000020010921090000200109210900002001092109000020010921090000200109210900002001092109000020010921090000200109210900002001092109000020010921090000200109210900002001092109000020010921090000200109210900002001092109000020010921090000200109210900002001092109000020010921090000200109210900002001092109000020010921090000200109210900002001092109000020010921090000200109210900002001092109000020010921090000200109210900002001092109000020010921090000200109210900002001092109000020010921090000200109210900002001092109000020010921090000200109210900002001092109000020010921090000200109210900002001092109000020010921090000200109210900002001092109000020010921090000200109210900002001092109000020010921090000200109210900002001092109000020010921090000200109210900002001092109000020010921090000,
 CPPT3   = 20010921091500200109210915002001092109150020010921091500200109210915002001092109150020010921091500200109210915002001092109150020010921091500200109210915002001092109150020010921091500200109210915002001092109150020010921091500200109210915002001092109150020010921091500200109210915002001092109150020010921091500200109210915002001092109150020010921091500200109210915002001092109150020010921091500200109210915002001092109150020010921091500200109210915002001092109150020010921091500200109210915002001092109150020010921091500200109210915002001092109150020010921091500200109210915002001092109150020010921091500200109210915002001092109150020010921091500200109210915002001092109150020010921091500200109210915002001092109150020010921091500200109210915002001092109150020010921091500200109210915002001092109150020010921091500200109210915002001092109150020010921091500200109210915002001092109150020010921091500200109210915002001092109150020010921091500200109210915002001092109150020010921091500200109210915002001092109150020010921091500200109210915002001092109150020010921091500200109210915002001092109150020010921091500200109210915002001092109150020010921091500200109210915002001092109150020010921091500200109210915002001092109150020010921091500200109210915002001092109150020010921091500200109210915002001092109150020010921091500200109210915002001092109150020010921091500200109210915002001092109150020010921091500,