 &NAM_LUNITN
 CINIFILE        = "INIFILE                     ",
 CINIFILEPGD     = "FIRE50m                     ",
 CCPLFILE        = 24*"                            "
 /
 &NAM_CONFN
 LUSERV  = T,
 LUSERC  = F,
 LUSERR  = F,
 LUSERI  = F,
 LUSERS  = F,
 LUSERG  = F,
 LUSERH  = F,
 LUSECI  = F,
 NSV_USER        =           2
 /
 &NAM_DYNN
 XTSTEP  =   60.0000000000000     ,
 CPRESOPT        = "CRESI",
 NITR    =           3,
 LITRADJ = T,
 LRES    = F,
 XRES    =  1.000000000000000E-007,
 XRELAX  =   1.00000000000000     ,
 LHORELAX_UVWTH  = F,
 LHORELAX_RV     = F,
 LHORELAX_RC     = F,
 LHORELAX_RR     = F,
 LHORELAX_RI     = F,
 LHORELAX_RS     = F,
 LHORELAX_RG     = F,
 LHORELAX_RH     = F,
 LHORELAX_TKE    = F,
 LHORELAX_SVC2R2 = F,
 LHORELAX_SVC1R3 = F,
 LHORELAX_SVELEC = F,
 LHORELAX_SVCHEM = F,
 LHORELAX_SVCHIC = F,
 LHORELAX_SVLG   = F,
 LHORELAX_SVDST  = F,
 LHORELAX_SVSLT  = F,
 LHORELAX_SVAER  = F,
 LHORELAX_SVPP   = F,
 LHORELAX_SVCS   = F,
 LHORELAX_SV     = 200*F,
 LVE_RELAX       = F,
 LVE_RELAX_GRD   = F,
 LHORELAX_SVFF   = F,
 NRIMX   =           6,
 NRIMY   =           6,
 XRIMKMAX        =  1.666666666666667E-004,
 XT4DIFU =   1800.00000000000     ,
 XT4DIFTH        =   1800.00000000000     ,
 XT4DIFSV        =   1800.00000000000     
 /
 &NAM_ADVN
 CUVW_ADV_SCHEME = "WENO_K",
 CMET_ADV_SCHEME = "PPM_01",
 CSV_ADV_SCHEME  = "PPM_01",
 CTEMP_SCHEME    = "RK53",
 NWENO_ORDER     =           3,
 LSPLIT_CFL      = T,
 XSPLIT_CFL      =  0.800000000000000     ,
 LCFL_WRIT       = F
 /
 &NAM_PARAMN
 CTURB   = "NONE",
 CRAD    = "NONE",
 CCLOUD  = "NONE",
 CDCONV  = "NONE",
 CSCONV  = "NONE",
 CELEC   = "NONE",
 CACTCCN = "NONE"
 /
 &NAM_LBCN
 CLBCX   = 2*"OPEN",
 CLBCY   = 2*"OPEN",
 NLBLX   = 2*1,
 NLBLY   = 2*1,
 XCPHASE =   20.0000000000000     ,
 XCPHASE_PBL     =  0.000000000000000E+000,
 XCARPKMAX       =   999.000000000000     ,
 XPOND   =   1.00000000000000     
 /
 &NAM_NUDGINGN
 LNUDGING        = F,
 XTNUDGING       =   21600.0000000000     
 /
 &NAM_CONF
 CCONF   = "START",
 LFLAT   = T,
 NMODEL  =           1,
 CEQNSYS = "DUR",
 NVERB   =          10,
 CEXP    = "EXP01",
 CSEG    = "SEG01",
 LFORCING        = F,
 NHALO   =           1,
 CSPLIT  = "BSPLITTING",
 LLG     = F,
 LINIT_LG        = F,
 CINIT_LG        = "FMOUT",
 LNOMIXLG        = F,
 LCHECK  = F,
 JPHEXT  =           1
 /
 &NAM_DYN
 XSEGLEN =   43200.0000000000     ,
 XASSELIN        =  0.200000000000000     ,
 XASSELIN_SV     =  2.000000000000000E-002,
 LCORIO  = T,
 LNUMDIFU        = F,
 LNUMDIFTH       = F,
 LNUMDIFSV       = F,
 XALKTOP =  1.000000000000000E-002,
 XALZBOT =   4000.00000000000     ,
 LZDIFFU = F,
 XALKGRD =  1.000000000000000E-002,
 XALZBAS =  1.000000000000000E-002
 /
 &NAM_NESTING
 NDAD    = 2*1,           2,           3,           4,           5,           6,           7,
 NDTRATIO        = 8*1,
 XWAY    =  0.000000000000000E+000, 7*2.00000000000000        
 /
 &NAM_BLANK
 XDUMMY1 =  0.000000000000000E+000,
 XDUMMY2 =  0.000000000000000E+000,
 XDUMMY3 =  0.000000000000000E+000,
 XDUMMY4 =  0.000000000000000E+000,
 XDUMMY5 =  0.000000000000000E+000,
 XDUMMY6 =  0.000000000000000E+000,
 XDUMMY7 =  0.000000000000000E+000,
 XDUMMY8 =  0.000000000000000E+000,
 NDUMMY1 =           0,
 NDUMMY2 =           0,
 NDUMMY3 =           0,
 NDUMMY4 =           0,
 NDUMMY5 =           0,
 NDUMMY6 =           0,
 NDUMMY7 =           0,
 NDUMMY8 =           0,
 LDUMMY1 = T,
 LDUMMY2 = T,
 LDUMMY3 = T,
 LDUMMY4 = T,
 LDUMMY5 = T,
 LDUMMY6 = T,
 LDUMMY7 = T,
 LDUMMY8 = T,
 CDUMMY1 = "                                                                                ",
 CDUMMY2 = "                                                                                ",
 CDUMMY3 = "                                                                                ",
 CDUMMY4 = "                                                                                ",
 CDUMMY5 = "                                                                                ",
 CDUMMY6 = "                                                                                ",
 CDUMMY7 = "                                                                                ",
 CDUMMY8 = "                                                                                ",
 XDUMMY  = 20*0.000000000000000E+000  ,
 NDUMMY  = 20*0,
 LDUMMY  = 20*T,
 CDUMMY  = 20*"                                                                                "
 /
 &NAM_SSON
 CROUGH  = "BE04",
 XFRACZ0 =   2.00000000000000     ,
 XCOEFBE =   2.00000000000000     
 /
 &NAM_CH_CONTROLN
 CCHEM_SURF_FILE = "                            "
 /
 &NAM_CH_SURFN
 LCH_SURF_EMIS   = F
 /
 &NAM_DIAG_SURF_ATMN
 LFRAC   = F,
 LDIAG_GRID      = T
 /
 &NAM_DIAG_SURFN
 N2M     =           0,
 L2M_MIN_ZS      = F,
 LSURF_BUDGET    = F,
 LRAD_BUDGET     = F,
 LSURF_BUDGETC   = F,
 LRESET_BUDGETC  = F,
 LCOEF   = F,
 LSURF_VARS      = F
 /
 &NAM_WRITE_DIAG_SURFN
 LPROVAR_TO_DIAG = F,
 LSELECT = F,
 CSELECT = 250*"            "
 /
 &NAM_CHS_ORILAM
 LCH_AERO_FLUX   = F,
 XEMISSIGI       =   1.86000000000000     ,
 XEMISSIGJ       =   1.29000000000000     ,
 XEMISRADIUSI    =  3.600000000000000E-002,
 XEMISRADIUSJ    =  0.385000000000000     ,
 CRGUNIT = "NUMB",
 LCO2PM  = F
 /
 &NAM_SURF_ATM
 XCISMIN =  6.700000000000000E-005,
 XVMODMIN        =  0.000000000000000E+000,
 LALDTHRES       = F,
 LDRAG_COEF_ARP  = F,
 LALDZ0H = F,
 LNOSOF  = F,
 LRW_PRECIP      = F,
 XEDB    =   5.00000000000000     ,
 XEDC    =   5.00000000000000     ,
 XEDD    =   5.00000000000000     ,
 XEDK    =   1.00000000000000     ,
 XUSURIC =   1.00000000000000     ,
 XUSURID =  3.500000000000000E-002,
 XUSURICL        =   4.00000000000000     ,
 XVCHRNK =  1.500000000000000E-002,
 XVZ0CM  =  0.000000000000000E+000,
 XDELTA_MAX      =   1.00000000000000     ,
 XRIMAX  =  0.200000000000000     ,
 LVERTSHIFT      = T,
 LVZIUSTAR0_ARP  = F,
 LRRGUST_ARP     = F,
 XVZIUSTAR0      =  0.000000000000000E+000,
 XRZHZ0M =   1.00000000000000     ,
 XRRSCALE        =  1.150000000000000E-004,
 XRRGAMMA        =  0.800000000000000     ,
 XUTILGUST       =  0.125000000000000     ,
 LCPL_ARP        = F,
 LQVNPLUS        = F,
 CIMPLICIT_WIND  = "NEW"
 /
 &NAM_WRITE_SURF_ATM
 LNOWRITE_CANOPY = F,
 LNOWRITE_TEXFILE        = T
 /
