&NAM_CONFIO  LCDF4=T LLFIOUT=T, LLFIREAD=F/
&NAM_CONFZ MPI_BUFFER_SIZE=100/

&NAM_REAL_PGD /

&NAM_DIMn_PRE  NIMAX=60,  NJMAX=60 /
&NAM_GRIDH_PRE XDELTAX=50, XDELTAY=50  /

&NAM_VER_GRID NKMAX=50, ZDZGRD=50, ZDZTOP=200, YZGRID_TYPE='FUNCTN'
              ZSTRGRD=0., ZSTRTOP=2., ZZMAX_STRGRD=1000. /

&NAM_CONF_PRE LCARTESIAN=.TRUE., NVERB=10,
              CIDEAL='CSTN',  CZS='FLAT', LFORCING=.FALSE., LPACK=.FALSE.,
              LBOUSS=.FALSE., CEQNSYS='DUR',
              LPERTURB=.FALSE.  /
&NAM_PERT_PRE /
&NAM_CONFn LUSERV=.TRUE., NSV_USER=2 /
&NAM_GRID_PRE XLAT0=4.62 / 
&NAM_LUNITn CINIFILEPGD='FIRE50m' /
&NAM_PREP_ISBA XHUG_SURF=0., XHUG_ROOT=0.2, XHUG_DEEP=0.2, XTG_SURF=285.,
               XTG_ROOT=285., XTG_DEEP=285. / 
&NAM_POST_PRE /
&NAM_DYNn_PRE  /
&NAM_LBCn_PRE CLBCX=2*'OPEN', CLBCY=2*'OPEN' / 
&NAM_VPROF_PRE LGEOSBAL = .FALSE., CTYPELOC='IJGRID', NILOC=2, NJLOC=2 /
&NAM_GRn_PRE CSURF='EXTE'/
&NAM_CH_MNHCn_PRE /
&NAM_BLANK /
&NAM_PGD_SCHEMES CNATURE='ISBA' /
&NAM_ISBA XUNIF_SAND = 1. /
&NAM_COVER XUNIF_COVER(1)=1. /
CSTN
2000 01 01 0.
10
285.000000
100000.000000
0.000 333.333 666.667 1000.000 1333.333 1666.667 2000.000 2333.333 2666.667 3000.000
0.000 10.384 11.465 12.149 12.659 13.069 13.413 13.712 13.976 14.213
0.000 0.000 0.000 0.000 0.000 0.000 0.000 0.000 0.000 0.000
0.000 0.000 0.000 0.000 0.000 0.000 0.000 0.000 0.000 0.000
0.018 0.018 0.018 0.018 0.018 0.018 0.018 0.018 0.018
